5

C           -0.000083764083     0.000081651469     0.000094976277
H           -0.676518000448     0.853273320810    -0.085717298014
H           -0.394037952365    -0.836371696876    -0.581791466330
H            0.086306793126    -0.293962567185     1.048557272102
H            0.985246524273     0.276088733191    -0.382179374017
